STAAD SPACE
START JOB INFORMATION
ENGINEER DATE 20-Jan-23
END JOB INFORMATION
INPUT WIDTH 79
UNIT METER KN
JOINT COORDINATES
1 0 0 0; 2 0 4 0; 3 5 4 0; 4 5 0 0; 5 9 4 0; 6 9 0 0; 7 14 4 0; 8 14 0 0;
9 19 4 0; 10 19 0 0; 11 24 4 0; 12 24 0 0; 13 0 0 5; 14 0 4 5; 15 5 4 5;
16 5 0 5; 17 9 4 5; 18 9 0 5; 19 14 4 5; 20 14 0 5; 21 19 4 5; 22 19 0 5;
23 24 4 5; 24 24 0 5; 25 0 0 10; 26 0 4 10; 27 5 4 10; 28 5 0 10; 29 9 4 10;
30 9 0 10; 31 14 4 10; 32 14 0 10; 33 19 4 10; 34 19 0 10; 35 24 4 10;
36 24 0 10; 37 0 8 0; 38 5 8 0; 39 9 8 0; 40 14 8 0; 41 19 8 0; 42 24 8 0;
43 0 8 5; 44 5 8 5; 45 9 8 5; 46 14 8 5; 47 19 8 5; 48 24 8 5; 49 0 8 10;
50 5 8 10; 51 9 8 10; 52 14 8 10; 53 19 8 10; 54 24 8 10;
MEMBER INCIDENCES
1 1 2; 2 2 3; 3 3 4; 4 3 5; 5 5 6; 6 5 7; 7 7 8; 8 7 9; 9 9 10; 10 9 11;
11 11 12; 12 2 14; 13 3 15; 14 5 17; 15 7 19; 16 9 21; 17 11 23; 18 13 14;
19 14 15; 20 15 16; 21 15 17; 22 17 18; 23 17 19; 24 19 20; 25 19 21; 26 21 22;
27 21 23; 28 23 24; 29 14 26; 30 15 27; 31 17 29; 32 19 31; 33 21 33; 34 23 35;
35 25 26; 36 26 27; 37 27 28; 38 27 29; 39 29 30; 40 29 31; 41 31 32; 42 31 33;
43 33 34; 44 33 35; 45 35 36; 46 2 37; 47 3 38; 48 5 39; 49 7 40; 50 9 41;
51 11 42; 52 14 43; 53 15 44; 54 17 45; 55 19 46; 56 21 47; 57 23 48; 58 26 49;
59 27 50; 60 29 51; 61 31 52; 62 33 53; 63 35 54; 64 37 38; 65 38 39; 66 39 40;
67 40 41; 68 41 42; 69 37 43; 70 38 44; 71 39 45; 72 40 46; 73 41 47; 74 42 48;
75 43 44; 76 44 45; 77 45 46; 78 46 47; 79 47 48; 80 43 49; 81 44 50; 82 45 51;
83 46 52; 84 47 53; 85 48 54; 86 49 50; 87 50 51; 88 51 52; 89 52 53; 90 53 54;
START GROUP DEFINITION
MEMBER
_MAX 2 6 8 10 12 TO 17 19 21 23 25 27 29 TO 34 36 40 42 44 64 66 TO 86 88 TO 90
END GROUP DEFINITION
DEFINE MATERIAL START
ISOTROPIC CONCRETE
E 2.17185e+07
POISSON 0.17
DENSITY 23.5616
ALPHA 1e-05
DAMP 0.05
G 9.28139e+06
TYPE CONCRETE
STRENGTH FCU 27579
END DEFINE MATERIAL
MEMBER PROPERTY
1 3 5 7 9 11 18 20 22 24 26 28 35 37 39 41 43 45 TO 63 PRIS YD 0.3 ZD 0.3
2 4 6 8 10 12 TO 17 19 21 23 25 27 29 TO 34 36 38 40 42 44 64 TO 89 -
90 PRIS YD 0.5 ZD 0.3
CONSTANTS
MATERIAL CONCRETE ALL
SUPPORTS
1 4 6 8 10 12 13 16 18 20 22 24 25 28 30 32 34 36 FIXED
LOAD 1 LOADTYPE Dead  TITLE LOAD CASE 1
UNIT METER KG
SELFWEIGHT Y -1 
FLOOR LOAD
YRANGE 0 40 FLOAD -500 GY
UNIT METER KN
LOAD 2 LOADTYPE Live  TITLE LOAD CASE 2
UNIT METER KG
FLOOR LOAD
YRANGE 0 40 FLOAD -2000 GY
UNIT METER KN
LOAD 3 LOADTYPE Wind  TITLE LOAD CASE 3
UNIT METER KG
JOINT LOAD
2 14 26 37 43 49 FX 500
LOAD 4 LOADTYPE None  TITLE LOAD CASE 4
MEMBER LOAD
77 TO 79 87 CON GY -4350
77 TO 79 87 CMOM GY 5100
LOAD COMB 101 COMB - 1.4 DEAD
1 1.4 
LOAD COMB 102 COMB - 1.2 DEAD + 1.6 LIVE
1 1.2 2 1.6 
LOAD COMB 103 COMB - 1.2 DEAD + 1 LIVE
1 1.2 2 1.0 
LOAD COMB 104 COMB - 1.2 DEAD + 0.8 WIND
1 1.2 3 0.8 
LOAD COMB 105 COMB - 1.2 DEAD + 1 LIVE + 1.6 WIND
1 1.2 2 1.0 3 1.6 
LOAD COMB 106 COMB - 0.9 DEAD + 1.6 WIND
1 0.9 3 1.6 
LOAD COMB 107 COMB - 0.9 DEAD
1 0.9 
PERFORM ANALYSIS
FINISH
